Version 4
SHEET 1 1480 680
WIRE 352 -16 208 -16
WIRE 496 -16 352 -16
WIRE 1168 -16 1024 -16
WIRE 1312 -16 1168 -16
WIRE 208 32 208 -16
WIRE 1024 32 1024 -16
WIRE 496 112 496 -16
WIRE 1312 112 1312 -16
WIRE 208 128 208 112
WIRE 1024 128 1024 112
WIRE 208 144 208 128
WIRE 1024 144 1024 128
WIRE -80 192 -112 192
WIRE 0 192 -80 192
WIRE 96 192 80 192
WIRE 144 192 96 192
WIRE 752 192 704 192
WIRE 816 192 752 192
WIRE 912 192 896 192
WIRE 960 192 912 192
WIRE -112 240 -112 192
WIRE 704 240 704 192
WIRE -112 368 -112 320
WIRE 208 368 208 240
WIRE 208 368 -112 368
WIRE 496 368 496 192
WIRE 496 368 208 368
WIRE 704 368 704 320
WIRE 1024 368 1024 240
WIRE 1024 368 704 368
WIRE 1312 368 1312 192
WIRE 1312 368 1024 368
WIRE 208 384 208 368
WIRE 1024 384 1024 368
FLAG 208 384 0
FLAG 1024 384 0
FLAG 96 192 B1
FLAG 208 128 C1
FLAG 912 192 B2
FLAG 1024 128 C2
FLAG -80 192 VBB1
FLAG 352 -16 VCC1
FLAG 752 192 VBB2
FLAG 1168 -16 VCC2
SYMBOL res 192 16 R0
SYMATTR InstName RC1
SYMATTR Value 500
SYMBOL res -16 208 R270
WINDOW 0 32 56 VTop 2
WINDOW 3 0 56 VBottom 2
SYMATTR InstName RB1
SYMATTR Value 100k
SYMBOL voltage -112 224 R0
WINDOW 123 0 0 Left 0
WINDOW 39 0 0 Left 0
WINDOW 0 -68 36 Left 2
WINDOW 3 -84 77 Left 2
SYMATTR InstName V1
SYMATTR Value 10.7
SYMBOL voltage 496 96 R0
WINDOW 123 0 0 Left 0
WINDOW 39 0 0 Left 0
WINDOW 0 35 40 Left 2
WINDOW 3 38 72 Left 2
SYMATTR InstName V2
SYMATTR Value 10
SYMBOL BJT_NPN_ideal 256 192 R0
WINDOW 0 9 25 Bottom 2
WINDOW 39 96 49 Bottom 2
SYMATTR InstName X1
SYMATTR SpiceLine VBE=0.7 beta=100
SYMBOL res 1008 16 R0
SYMATTR InstName RC2
SYMATTR Value 500
SYMBOL res 800 208 R270
WINDOW 0 32 56 VTop 2
WINDOW 3 0 56 VBottom 2
SYMATTR InstName RB2
SYMATTR Value 100k
SYMBOL voltage 704 336 R180
WINDOW 123 0 0 Left 0
WINDOW 39 0 0 Left 0
WINDOW 0 42 75 Left 2
WINDOW 3 42 33 Left 2
SYMATTR InstName V3
SYMATTR Value 10.7
SYMBOL voltage 1312 208 R180
WINDOW 123 0 0 Left 0
WINDOW 39 0 0 Left 0
WINDOW 0 -71 74 Left 2
WINDOW 3 -70 32 Left 2
SYMATTR InstName V4
SYMATTR Value 10
SYMBOL BJT_PNP_ideal 1072 192 R0
WINDOW 0 11 18 Bottom 2
WINDOW 39 105 45 Bottom 2
SYMATTR InstName X2
SYMATTR SpiceLine VBE=-0.7 beta=100
TEXT -176 424 Left 2 !.op
TEXT -152 -120 Left 2 ;Exemplo de uso: Transistor NPN ideal
TEXT -144 -88 Left 1 ;Altere RC1 para 1.5k para deixar o transistor saturado
TEXT 712 -120 Left 2 ;Exemplo de uso: Transistor PNP ideal
TEXT 720 -88 Left 1 ;Altere RC2 para 1.5k para deixar o transistor saturado
