Version 4
SHEET 1 880 680
WIRE 528 -112 224 -112
WIRE 224 -48 224 -112
WIRE 224 112 224 32
WIRE 528 112 528 -112
WIRE -256 160 -368 160
WIRE -64 160 -176 160
WIRE 160 160 -64 160
WIRE -64 208 -64 160
WIRE -368 224 -368 160
WIRE 224 256 224 208
WIRE -368 432 -368 304
WIRE -64 432 -64 288
WIRE -64 432 -368 432
WIRE 48 432 -64 432
WIRE 224 432 224 336
WIRE 224 432 48 432
WIRE 528 432 528 192
WIRE 528 432 224 432
FLAG 48 432 0
SYMBOL BJT_NPN_ideal 272 160 R0
SYMATTR InstName X1
SYMBOL res -160 144 R90
WINDOW 0 0 56 VBottom 2
WINDOW 3 32 56 VTop 2
SYMATTR InstName R1
SYMATTR Value 490
SYMBOL res -48 304 R180
WINDOW 0 36 76 Left 2
WINDOW 3 36 40 Left 2
SYMATTR InstName R2
SYMATTR Value 47
SYMBOL res 240 352 R180
WINDOW 0 36 76 Left 2
WINDOW 3 36 40 Left 2
SYMATTR InstName RE
SYMATTR Value 18
SYMBOL res 240 48 R180
WINDOW 0 36 76 Left 2
WINDOW 3 36 40 Left 2
SYMATTR InstName RC
SYMATTR Value 120
SYMBOL voltage -368 208 R0
WINDOW 123 0 0 Left 0
WINDOW 39 0 0 Left 0
SYMATTR InstName V1
SYMATTR Value 30
SYMBOL voltage 528 96 R0
WINDOW 123 0 0 Left 0
WINDOW 39 0 0 Left 0
SYMATTR InstName V2
SYMATTR Value 30
TEXT -400 456 Left 2 !.tran 0 100 0 10
